# generated using pymatgen
data_Er3Al2(GaO4)3
_symmetry_space_group_name_H-M   'P 1'
_cell_length_a   10.57478630
_cell_length_b   10.57478552
_cell_length_c   10.57478586
_cell_angle_alpha   109.47122128
_cell_angle_beta   109.47121979
_cell_angle_gamma   109.47122024
_symmetry_Int_Tables_number   1
_chemical_formula_structural   Er3Al2(GaO4)3
_chemical_formula_sum   'Er12 Al8 Ga12 O48'
_cell_volume   910.317436843
_cell_formula_units_Z   4
loop_
 _symmetry_equiv_pos_site_id
 _symmetry_equiv_pos_as_xyz
  1  'x, y, z'
loop_
 _atom_site_type_symbol
 _atom_site_label
 _atom_site_symmetry_multiplicity
 _atom_site_fract_x
 _atom_site_fract_y
 _atom_site_fract_z
 _atom_site_occupancy
  Er  Er1  1  0.250000  0.875000  0.625000  1
  Er  Er2  1  0.875000  0.625000  0.250000  1
  Er  Er3  1  0.625000  0.875000  0.750000  1
  Er  Er4  1  0.875000  0.750000  0.625000  1
  Er  Er5  1  0.625000  0.250000  0.875000  1
  Er  Er6  1  0.750000  0.625000  0.875000  1
  Er  Er7  1  0.750000  0.125000  0.375000  1
  Er  Er8  1  0.125000  0.375000  0.750000  1
  Er  Er9  1  0.375000  0.125000  0.250000  1
  Er  Er10  1  0.125000  0.250000  0.375000  1
  Er  Er11  1  0.375000  0.750000  0.125000  1
  Er  Er12  1  0.250000  0.375000  0.125000  1
  Al  Al13  1  0.500000  0.500000  0.500000  1
  Al  Al14  1  0.500000  0.500000  0.000000  1
  Al  Al15  1  0.500000  -0.000000  0.500000  1
  Al  Al16  1  0.000000  0.500000  0.500000  1
  Al  Al17  1  0.500000  -0.000000  0.000000  1
  Al  Al18  1  0.000000  -0.000000  0.500000  1
  Al  Al19  1  0.000000  0.500000  0.000000  1
  Al  Al20  1  0.000000  -0.000000  0.000000  1
  Ga  Ga21  1  0.250000  0.125000  0.875000  1
  Ga  Ga22  1  0.750000  0.875000  0.125000  1
  Ga  Ga23  1  0.375000  0.250000  0.625000  1
  Ga  Ga24  1  0.625000  0.375000  0.250000  1
  Ga  Ga25  1  0.125000  0.750000  0.875000  1
  Ga  Ga26  1  0.875000  0.125000  0.750000  1
  Ga  Ga27  1  0.750000  0.375000  0.625000  1
  Ga  Ga28  1  0.375000  0.625000  0.750000  1
  Ga  Ga29  1  0.125000  0.875000  0.250000  1
  Ga  Ga30  1  0.875000  0.250000  0.125000  1
  Ga  Ga31  1  0.625000  0.750000  0.375000  1
  Ga  Ga32  1  0.250000  0.625000  0.375000  1
  O  O33  1  0.700662  0.673512  0.079973  1
  O  O34  1  0.826488  0.527151  0.406460  1
  O  O35  1  0.420027  0.093540  0.620690  1
  O  O36  1  0.799338  0.879310  0.972849  1
  O  O37  1  0.799338  0.420027  0.826488  1
  O  O38  1  0.879310  0.972849  0.799338  1
  O  O39  1  0.093540  0.972849  0.673512  1
  O  O40  1  0.972849  0.799338  0.879310  1
  O  O41  1  0.406460  0.079973  0.879310  1
  O  O42  1  0.527151  0.620690  0.700662  1
  O  O43  1  0.620690  0.700662  0.527151  1
  O  O44  1  0.826488  0.799338  0.420027  1
  O  O45  1  0.972849  0.673512  0.093540  1
  O  O46  1  0.879310  0.406460  0.079973  1
  O  O47  1  0.420027  0.826488  0.799338  1
  O  O48  1  0.673512  0.093540  0.972849  1
  O  O49  1  0.079973  0.879310  0.406460  1
  O  O50  1  0.406460  0.826488  0.527151  1
  O  O51  1  0.093540  0.620690  0.420027  1
  O  O52  1  0.593540  0.920027  0.120690  1
  O  O53  1  0.620690  0.420027  0.093540  1
  O  O54  1  0.079973  0.700662  0.673512  1
  O  O55  1  0.527151  0.406460  0.826488  1
  O  O56  1  0.700662  0.527151  0.620690  1
  O  O57  1  0.299338  0.326488  0.920027  1
  O  O58  1  0.173512  0.472849  0.593540  1
  O  O59  1  0.579973  0.906460  0.379310  1
  O  O60  1  0.200662  0.120690  0.027151  1
  O  O61  1  0.200662  0.579973  0.173512  1
  O  O62  1  0.120690  0.027151  0.200662  1
  O  O63  1  0.906460  0.027151  0.326488  1
  O  O64  1  0.027151  0.200662  0.120690  1
  O  O65  1  0.299338  0.472849  0.379310  1
  O  O66  1  0.472849  0.593540  0.173512  1
  O  O67  1  0.920027  0.299338  0.326488  1
  O  O68  1  0.326488  0.920027  0.299338  1
  O  O69  1  0.379310  0.579973  0.906460  1
  O  O70  1  0.906460  0.379310  0.579973  1
  O  O71  1  0.593540  0.173512  0.472849  1
  O  O72  1  0.920027  0.120690  0.593540  1
  O  O73  1  0.326488  0.906460  0.027151  1
  O  O74  1  0.579973  0.173512  0.200662  1
  O  O75  1  0.120690  0.593540  0.920027  1
  O  O76  1  0.027151  0.326488  0.906460  1
  O  O77  1  0.173512  0.200662  0.579973  1
  O  O78  1  0.379310  0.299338  0.472849  1
  O  O79  1  0.472849  0.379310  0.299338  1
  O  O80  1  0.673512  0.079973  0.700662  1
