# generated using pymatgen
data_Li
_symmetry_space_group_name_H-M   'P 1'
_cell_length_a   12.71209091
_cell_length_b   10.54581436
_cell_length_c   9.48987702
_cell_angle_alpha   91.62537963
_cell_angle_beta   100.27142583
_cell_angle_gamma   89.26541522
_symmetry_Int_Tables_number   1
_chemical_formula_structural   Li
_chemical_formula_sum   Li64
_cell_volume   1251.27583382
_cell_formula_units_Z   64
loop_
 _symmetry_equiv_pos_site_id
 _symmetry_equiv_pos_as_xyz
  1  'x, y, z'
loop_
 _atom_site_type_symbol
 _atom_site_label
 _atom_site_symmetry_multiplicity
 _atom_site_fract_x
 _atom_site_fract_y
 _atom_site_fract_z
 _atom_site_occupancy
  Li  Li1  1  -0.005156  -0.005263  -0.010869  1
  Li  Li2  1  -0.008164  -0.002429  0.249375  1
  Li  Li3  1  0.000879  0.005240  0.492469  1
  Li  Li4  1  0.006787  -0.006025  0.748655  1
  Li  Li5  1  -0.000013  0.256773  -0.004571  1
  Li  Li6  1  -0.005217  0.249031  0.257678  1
  Li  Li7  1  -0.001583  0.252178  0.500916  1
  Li  Li8  1  -0.008053  0.242261  0.745820  1
  Li  Li9  1  0.003207  0.490520  -0.006243  1
  Li  Li10  1  0.003653  0.503699  0.250019  1
  Li  Li11  1  0.000550  0.491287  0.505126  1
  Li  Li12  1  -0.002586  0.507584  0.749801  1
  Li  Li13  1  0.006417  0.754386  0.008406  1
  Li  Li14  1  -0.004822  0.758565  0.239985  1
  Li  Li15  1  -0.000630  0.747933  0.500915  1
  Li  Li16  1  -0.002000  0.747139  0.752885  1
  Li  Li17  1  0.253655  -0.000747  -0.006015  1
  Li  Li18  1  0.250503  -0.008954  0.247577  1
  Li  Li19  1  0.243033  0.001714  0.503886  1
  Li  Li20  1  0.257262  -0.004535  0.746482  1
  Li  Li21  1  0.256530  0.252104  0.009109  1
  Li  Li22  1  0.256416  0.243376  0.259639  1
  Li  Li23  1  0.243556  0.243892  0.506995  1
  Li  Li24  1  0.255349  0.249449  0.744876  1
  Li  Li25  1  0.249477  0.501982  -0.006371  1
  Li  Li26  1  0.253414  0.502861  0.252483  1
  Li  Li27  1  0.249121  0.497144  0.504967  1
  Li  Li28  1  0.245892  0.499814  0.744197  1
  Li  Li29  1  0.253785  0.754652  0.009719  1
  Li  Li30  1  0.254629  0.752900  0.244874  1
  Li  Li31  1  0.250059  0.750194  0.495937  1
  Li  Li32  1  0.257707  0.752859  0.746736  1
  Li  Li33  1  0.491833  -0.005144  0.003959  1
  Li  Li34  1  0.506023  -0.007585  0.246926  1
  Li  Li35  1  0.503488  0.004588  0.511104  1
  Li  Li36  1  0.495317  -0.001991  0.740069  1
  Li  Li37  1  0.506414  0.251584  0.004116  1
  Li  Li38  1  0.503973  0.242109  0.247028  1
  Li  Li39  1  0.498687  0.243084  0.495429  1
  Li  Li40  1  0.501744  0.258742  0.761015  1
  Li  Li41  1  0.496311  0.505961  -0.008727  1
  Li  Li42  1  0.505724  0.492313  0.246915  1
  Li  Li43  1  0.493660  0.496608  0.493996  1
  Li  Li44  1  0.496725  0.496024  0.755665  1
  Li  Li45  1  0.495954  0.758963  -0.003516  1
  Li  Li46  1  0.496710  0.747318  0.239564  1
  Li  Li47  1  0.507827  0.749182  0.505470  1
  Li  Li48  1  0.505056  0.745971  0.742059  1
  Li  Li49  1  0.742856  -0.007815  -0.003077  1
  Li  Li50  1  0.754596  -0.002118  0.259271  1
  Li  Li51  1  0.756208  0.007860  0.508646  1
  Li  Li52  1  0.742784  -0.002325  0.751718  1
  Li  Li53  1  0.751149  0.258039  0.007244  1
  Li  Li54  1  0.758486  0.253510  0.242668  1
  Li  Li55  1  0.742713  0.254560  0.496877  1
  Li  Li56  1  0.747164  0.243945  0.759538  1
  Li  Li57  1  0.756368  0.502954  0.004714  1
  Li  Li58  1  0.742549  0.498098  0.237887  1
  Li  Li59  1  0.754897  0.497628  0.494053  1
  Li  Li60  1  0.747617  0.497032  0.741252  1
  Li  Li61  1  0.748577  0.752177  0.007285  1
  Li  Li62  1  0.756479  0.740815  0.241568  1
  Li  Li63  1  0.756661  0.747986  0.504234  1
  Li  Li64  1  0.755154  0.743281  0.747602  1
