# generated using pymatgen
data_Lu3Al5O12
_symmetry_space_group_name_H-M   'P 1'
_cell_length_a   10.31089845
_cell_length_b   10.31089846
_cell_length_c   10.31089846
_cell_angle_alpha   109.47122061
_cell_angle_beta   109.47122063
_cell_angle_gamma   109.47122066
_symmetry_Int_Tables_number   1
_chemical_formula_structural   Lu3Al5O12
_chemical_formula_sum   'Lu12 Al20 O48'
_cell_volume   843.85463255
_cell_formula_units_Z   4
loop_
 _symmetry_equiv_pos_site_id
 _symmetry_equiv_pos_as_xyz
  1  'x, y, z'
loop_
 _atom_site_type_symbol
 _atom_site_label
 _atom_site_symmetry_multiplicity
 _atom_site_fract_x
 _atom_site_fract_y
 _atom_site_fract_z
 _atom_site_occupancy
  Lu  Lu1  1  0.250000  0.375000  0.125000  1.0
  Lu  Lu2  1  0.375000  0.750000  0.125000  1.0
  Lu  Lu3  1  0.125000  0.250000  0.375000  1.0
  Lu  Lu4  1  0.375000  0.125000  0.250000  1.0
  Lu  Lu5  1  0.125000  0.375000  0.750000  1.0
  Lu  Lu6  1  0.750000  0.125000  0.375000  1.0
  Lu  Lu7  1  0.750000  0.625000  0.875000  1.0
  Lu  Lu8  1  0.625000  0.250000  0.875000  1.0
  Lu  Lu9  1  0.875000  0.750000  0.625000  1.0
  Lu  Lu10  1  0.625000  0.875000  0.750000  1.0
  Lu  Lu11  1  0.875000  0.625000  0.250000  1.0
  Lu  Lu12  1  0.250000  0.875000  0.625000  1.0
  Al  Al13  1  0.000000  0.000000  0.000000  1.0
  Al  Al14  1  0.000000  0.500000  0.000000  1.0
  Al  Al15  1  0.000000  0.000000  0.500000  1.0
  Al  Al16  1  0.500000  0.000000  0.000000  1.0
  Al  Al17  1  0.000000  0.500000  0.500000  1.0
  Al  Al18  1  0.500000  0.000000  0.500000  1.0
  Al  Al19  1  0.500000  0.500000  0.000000  1.0
  Al  Al20  1  0.500000  0.500000  0.500000  1.0
  Al  Al21  1  0.250000  0.625000  0.375000  1.0
  Al  Al22  1  0.625000  0.750000  0.375000  1.0
  Al  Al23  1  0.875000  0.250000  0.125000  1.0
  Al  Al24  1  0.125000  0.875000  0.250000  1.0
  Al  Al25  1  0.250000  0.125000  0.875000  1.0
  Al  Al26  1  0.750000  0.875000  0.125000  1.0
  Al  Al27  1  0.375000  0.250000  0.625000  1.0
  Al  Al28  1  0.625000  0.375000  0.250000  1.0
  Al  Al29  1  0.125000  0.750000  0.875000  1.0
  Al  Al30  1  0.875000  0.125000  0.750000  1.0
  Al  Al31  1  0.750000  0.375000  0.625000  1.0
  Al  Al32  1  0.375000  0.625000  0.750000  1.0
  O  O33  1  0.795400  0.416900  0.819700  1.0
  O  O34  1  0.083100  0.878500  0.402800  1.0
  O  O35  1  0.680300  0.097200  0.975700  1.0
  O  O36  1  0.704600  0.524300  0.621500  1.0
  O  O37  1  0.704600  0.680300  0.083100  1.0
  O  O38  1  0.524300  0.621500  0.704600  1.0
  O  O39  1  0.097200  0.621500  0.416900  1.0
  O  O40  1  0.621500  0.704600  0.524300  1.0
  O  O41  1  0.402800  0.819700  0.524300  1.0
  O  O42  1  0.878500  0.975700  0.795400  1.0
  O  O43  1  0.975700  0.795400  0.878500  1.0
  O  O44  1  0.083100  0.704600  0.680300  1.0
  O  O45  1  0.621500  0.416900  0.097200  1.0
  O  O46  1  0.524300  0.402800  0.819700  1.0
  O  O47  1  0.680300  0.083100  0.704600  1.0
  O  O48  1  0.416900  0.097200  0.621500  1.0
  O  O49  1  0.819700  0.524300  0.402800  1.0
  O  O50  1  0.402800  0.083100  0.878500  1.0
  O  O51  1  0.097200  0.975700  0.680300  1.0
  O  O52  1  0.597200  0.180300  0.475700  1.0
  O  O53  1  0.975700  0.680300  0.097200  1.0
  O  O54  1  0.819700  0.795400  0.416900  1.0
  O  O55  1  0.878500  0.402800  0.083100  1.0
  O  O56  1  0.795400  0.878500  0.975700  1.0
  O  O57  1  0.204600  0.583100  0.180300  1.0
  O  O58  1  0.916900  0.121500  0.597200  1.0
  O  O59  1  0.319700  0.902800  0.024300  1.0
  O  O60  1  0.295400  0.475700  0.378500  1.0
  O  O61  1  0.295400  0.319700  0.916900  1.0
  O  O62  1  0.475700  0.378500  0.295400  1.0
  O  O63  1  0.902800  0.378500  0.583100  1.0
  O  O64  1  0.378500  0.295400  0.475700  1.0
  O  O65  1  0.204600  0.121500  0.024300  1.0
  O  O66  1  0.121500  0.597200  0.916900  1.0
  O  O67  1  0.180300  0.204600  0.583100  1.0
  O  O68  1  0.583100  0.180300  0.204600  1.0
  O  O69  1  0.024300  0.319700  0.902800  1.0
  O  O70  1  0.902800  0.024300  0.319700  1.0
  O  O71  1  0.597200  0.916900  0.121500  1.0
  O  O72  1  0.180300  0.475700  0.597200  1.0
  O  O73  1  0.583100  0.902800  0.378500  1.0
  O  O74  1  0.319700  0.916900  0.295400  1.0
  O  O75  1  0.475700  0.597200  0.180300  1.0
  O  O76  1  0.378500  0.583100  0.902800  1.0
  O  O77  1  0.916900  0.295400  0.319700  1.0
  O  O78  1  0.024300  0.204600  0.121500  1.0
  O  O79  1  0.121500  0.024300  0.204600  1.0
  O  O80  1  0.416900  0.819700  0.795400  1.0
