# generated using pymatgen
data_Y3Al5O12
_symmetry_space_group_name_H-M   'P 1'
_cell_length_a   10.39256465
_cell_length_b   10.39256466
_cell_length_c   10.39256465
_cell_angle_alpha   109.47122064
_cell_angle_beta   109.47122065
_cell_angle_gamma   109.47122062
_symmetry_Int_Tables_number   1
_chemical_formula_structural   Y3Al5O12
_chemical_formula_sum   'Y12 Al20 O48'
_cell_volume   864.064801625
_cell_formula_units_Z   4
loop_
 _symmetry_equiv_pos_site_id
 _symmetry_equiv_pos_as_xyz
  1  'x, y, z'
loop_
 _atom_site_type_symbol
 _atom_site_label
 _atom_site_symmetry_multiplicity
 _atom_site_fract_x
 _atom_site_fract_y
 _atom_site_fract_z
 _atom_site_occupancy
  Y  Y1  1  0.250000  0.875000  0.625000  1.0
  Y  Y2  1  0.875000  0.625000  0.250000  1.0
  Y  Y3  1  0.625000  0.875000  0.750000  1.0
  Y  Y4  1  0.875000  0.750000  0.625000  1.0
  Y  Y5  1  0.625000  0.250000  0.875000  1.0
  Y  Y6  1  0.750000  0.625000  0.875000  1.0
  Y  Y7  1  0.750000  0.125000  0.375000  1.0
  Y  Y8  1  0.125000  0.375000  0.750000  1.0
  Y  Y9  1  0.375000  0.125000  0.250000  1.0
  Y  Y10  1  0.125000  0.250000  0.375000  1.0
  Y  Y11  1  0.375000  0.750000  0.125000  1.0
  Y  Y12  1  0.250000  0.375000  0.125000  1.0
  Al  Al13  1  0.250000  0.125000  0.875000  1.0
  Al  Al14  1  0.750000  0.875000  0.125000  1.0
  Al  Al15  1  0.375000  0.250000  0.625000  1.0
  Al  Al16  1  0.625000  0.375000  0.250000  1.0
  Al  Al17  1  0.125000  0.750000  0.875000  1.0
  Al  Al18  1  0.875000  0.125000  0.750000  1.0
  Al  Al19  1  0.750000  0.375000  0.625000  1.0
  Al  Al20  1  0.375000  0.625000  0.750000  1.0
  Al  Al21  1  0.125000  0.875000  0.250000  1.0
  Al  Al22  1  0.875000  0.250000  0.125000  1.0
  Al  Al23  1  0.625000  0.750000  0.375000  1.0
  Al  Al24  1  0.250000  0.625000  0.375000  1.0
  Al  Al25  1  0.500000  0.500000  0.500000  1.0
  Al  Al26  1  0.500000  0.500000  0.000000  1.0
  Al  Al27  1  0.500000  0.000000  0.500000  1.0
  Al  Al28  1  0.000000  0.500000  0.500000  1.0
  Al  Al29  1  0.500000  0.000000  0.000000  1.0
  Al  Al30  1  0.000000  0.000000  0.500000  1.0
  Al  Al31  1  0.000000  0.500000  0.000000  1.0
  Al  Al32  1  0.000000  0.000000  0.000000  1.0
  O  O33  1  0.699400  0.679050  0.080930  1.0
  O  O34  1  0.820950  0.520350  0.401880  1.0
  O  O35  1  0.419070  0.098120  0.618470  1.0
  O  O36  1  0.800600  0.881530  0.979650  1.0
  O  O37  1  0.800600  0.419070  0.820950  1.0
  O  O38  1  0.881530  0.979650  0.800600  1.0
  O  O39  1  0.098120  0.979650  0.679050  1.0
  O  O40  1  0.979650  0.800600  0.881530  1.0
  O  O41  1  0.401880  0.080930  0.881530  1.0
  O  O42  1  0.520350  0.618470  0.699400  1.0
  O  O43  1  0.618470  0.699400  0.520350  1.0
  O  O44  1  0.820950  0.800600  0.419070  1.0
  O  O45  1  0.979650  0.679050  0.098120  1.0
  O  O46  1  0.881530  0.401880  0.080930  1.0
  O  O47  1  0.419070  0.820950  0.800600  1.0
  O  O48  1  0.679050  0.098120  0.979650  1.0
  O  O49  1  0.080930  0.881530  0.401880  1.0
  O  O50  1  0.401880  0.820950  0.520350  1.0
  O  O51  1  0.098120  0.618470  0.419070  1.0
  O  O52  1  0.598120  0.919070  0.118470  1.0
  O  O53  1  0.618470  0.419070  0.098120  1.0
  O  O54  1  0.080930  0.699400  0.679050  1.0
  O  O55  1  0.520350  0.401880  0.820950  1.0
  O  O56  1  0.699400  0.520350  0.618470  1.0
  O  O57  1  0.300600  0.320950  0.919070  1.0
  O  O58  1  0.179050  0.479650  0.598120  1.0
  O  O59  1  0.580930  0.901880  0.381530  1.0
  O  O60  1  0.199400  0.118470  0.020350  1.0
  O  O61  1  0.199400  0.580930  0.179050  1.0
  O  O62  1  0.118470  0.020350  0.199400  1.0
  O  O63  1  0.901880  0.020350  0.320950  1.0
  O  O64  1  0.020350  0.199400  0.118470  1.0
  O  O65  1  0.300600  0.479650  0.381530  1.0
  O  O66  1  0.479650  0.598120  0.179050  1.0
  O  O67  1  0.919070  0.300600  0.320950  1.0
  O  O68  1  0.320950  0.919070  0.300600  1.0
  O  O69  1  0.381530  0.580930  0.901880  1.0
  O  O70  1  0.901880  0.381530  0.580930  1.0
  O  O71  1  0.598120  0.179050  0.479650  1.0
  O  O72  1  0.919070  0.118470  0.598120  1.0
  O  O73  1  0.320950  0.901880  0.020350  1.0
  O  O74  1  0.580930  0.179050  0.199400  1.0
  O  O75  1  0.118470  0.598120  0.919070  1.0
  O  O76  1  0.020350  0.320950  0.901880  1.0
  O  O77  1  0.179050  0.199400  0.580930  1.0
  O  O78  1  0.381530  0.300600  0.479650  1.0
  O  O79  1  0.479650  0.381530  0.300600  1.0
  O  O80  1  0.679050  0.080930  0.699400  1.0
